<?xml version="1.0" encoding="UTF-8"?>
<!-- generated on 09/03/24 15:09:25 by Eclipse SUMO polyconvert Version 1.8.0
<configuration xmlns:xsi="http://www.w3.org/2001/XMLSchema-instance" xsi:noNamespaceSchemaLocation="http://sumo.dlr.de/xsd/polyconvertConfiguration.xsd">

    <input>
        <net-file value="osm.net.xml"/>
        <osm-files value="osm_bbox.osm.xml"/>
        <osm.keep-full-type value="true"/>
        <type-file value="E:\sumo-1.8.0\tools\data\typemap\osmPolyconvert.typ.xml"/>
    </input>

    <output>
        <output-file value="osm.poly.xml"/>
    </output>

    <processing>
        <poi-layer-offset value="5"/>
    </processing>

    <report>
        <verbose value="true"/>
    </report>

</configuration>
-->

<additional xmlns:xsi="http://www.w3.org/2001/XMLSchema-instance" xsi:noNamespaceSchemaLocation="http://sumo.dlr.de/xsd/additional_file.xsd">
    <location netOffset="-356974.53,-3462522.55" convBoundary="-658.94,-17.57,3110.51,4801.85" origBoundary="121.490204,31.288329,121.529923,31.331631" projParameter="+proj=utm +zone=51 +ellps=WGS84 +datum=WGS84 +units=m +no_defs"/>

    <poly id="1006334669" type="building.apartments" color="255,230,230" fill="1" layer="-1.00" shape="920.940423,1228.464438 872.034112,1210.700551 867.030363,1224.327500 915.936772,1242.102447 920.940423,1228.464438"/>
    <poly id="1006334670" type="building.apartments" color="255,230,230" fill="1" layer="-1.00" shape="978.280880,1266.602786 923.580417,1249.072320 927.875316,1235.820863 982.575689,1253.340269 978.280880,1266.602786"/>
    <poly id="1006334671" type="building.apartments" color="255,230,230" fill="1" layer="-1.00" shape="927.705125,1204.270120 877.322472,1188.566168 881.037066,1176.752750 931.419619,1192.445637 927.705125,1204.270120"/>
    <poly id="1006334672" type="building.apartments" color="255,230,230" fill="1" layer="-1.00" shape="985.921944,1224.857326 936.244232,1206.360770 940.121918,1196.041886 989.808888,1214.516163 985.921944,1224.857326"/>
    <poly id="100945745" type="building.yes" color="255,230,230" fill="1" layer="-1.00" shape="1173.691017,2090.846224 1133.081659,2071.073292 1142.963983,2046.548657 1166.400792,2005.066404 1214.574706,2028.817160 1270.759596,2056.506558 1250.863955,2095.900737 1265.782888,2103.836840 1253.590933,2128.636472 1185.510965,2096.274155 1199.926056,2067.641609 1207.142083,2072.610727 1214.131694,2060.830749 1199.686503,2053.442651 1188.941382,2047.955824 1183.470449,2058.706386 1189.631338,2061.671960 1173.691017,2090.846224"/>
    <poly id="1021674073" type="landuse.residential" color="235,235,227" fill="1" layer="-3.00" shape="915.360348,727.782426 957.775949,708.271966 1048.865128,908.730327 982.064502,936.342311 887.037964,740.483378 890.200510,739.209915 915.360348,727.782426"/>
    <poly id="1023096617" type="landuse.residential" color="235,235,227" fill="1" layer="-3.00" shape="1548.624199,1774.277813 1616.654358,1796.532047 1639.913726,1726.161241 1571.883177,1703.906844 1548.624199,1774.277813"/>
    <poly id="1023595586" type="landuse.retail" color="194,194,130" fill="1" layer="-3.00" shape="958.900697,2077.388619 988.873106,2011.759037 752.343799,1917.943248 600.688933,1819.532064 548.894447,1830.778884 529.522013,1863.681627 567.090919,1887.229864 650.243027,1949.728431 814.526730,2012.269457 958.900697,2077.388619"/>
    <poly id="1035068088" type="leisure.pitch" color="207,245,201" fill="1" layer="-2.00" shape="1669.110331,873.927168 1658.362295,869.703752 1643.940501,864.143991 1633.096773,859.179076 1627.065106,849.592680 1629.215755,834.685271 1639.115994,820.493883 1651.600220,817.199245 1662.935696,819.796077 1676.972846,823.653687 1688.007632,827.252403 1702.001796,831.454314 1713.605318,835.577563 1726.995150,842.271076 1731.751253,851.874697 1731.936557,871.296200 1715.732778,884.696514 1697.744441,885.049598 1682.028895,878.853089 1669.110331,873.927168"/>
    <poly id="1035068090" type="landuse.residential" color="235,235,227" fill="1" layer="-3.00" shape="1667.090345,905.607077 1711.247411,919.946279 1715.597377,908.579215 1671.011942,894.245762 1667.090345,905.607077"/>
    <poly id="1035068091" type="landuse.residential" color="235,235,227" fill="1" layer="-3.00" shape="1424.330632,587.651524 1445.950206,497.911851 1580.150720,550.849006 1558.830430,628.255845 1490.062906,694.495063 1543.527207,716.247108 1538.046922,733.450035 1500.901650,850.162339 1337.098462,800.198070 1331.917055,686.484439 1402.017290,700.028734 1424.330632,587.651524"/>
    <poly id="1057676221" type="landuse.residential" color="235,235,227" fill="1" layer="-3.00" shape="1856.234009,781.572588 2094.450689,855.412905 2136.327474,758.784107 1900.318191,663.737393 1856.234009,781.572588"/>
    <poly id="1057676233" type="building.yes" color="255,230,230" fill="1" layer="-1.00" shape="1500.901650,850.162339 1535.673486,861.057447 1548.086195,861.644015 1553.868053,859.049380 1559.872995,853.935045 1562.320042,847.604779 1600.267264,752.911317 1538.046922,733.450035 1500.901650,850.162339"/>
    <poly id="1057676233#1" type="shop.mall" color="237,199,255" fill="1" layer="-1.00" shape="1500.901650,850.162339 1535.673486,861.057447 1548.086195,861.644015 1553.868053,859.049380 1559.872995,853.935045 1562.320042,847.604779 1600.267264,752.911317 1538.046922,733.450035 1500.901650,850.162339"/>
    <poly id="1058034753" type="building.yes" color="255,230,230" fill="1" layer="-1.00" shape="1326.540762,1423.484286 1330.212339,1416.915675 1341.712378,1423.279420 1338.031279,1429.848155 1326.540762,1423.484286"/>
    <poly id="1058034755" type="building.yes" color="255,230,230" fill="1" layer="-1.00" shape="1355.511258,1432.805134 1352.088983,1426.110573 1363.813273,1420.176068 1367.235542,1426.870632 1355.511258,1432.805134"/>
    <poly id="1058034769" type="building.yes" color="255,230,230" fill="1" layer="-1.00" shape="1406.540350,1483.858320 1413.725144,1481.555082 1417.758304,1494.017630 1410.573518,1496.320865 1406.540350,1483.858320"/>
    <poly id="1107318310" type="building.apartments" color="255,230,230" fill="1" layer="-1.00" shape="1988.481627,795.892581 1983.269037,808.978464 2034.167261,829.060057 2039.380050,815.985285 1988.481627,795.892581"/>
    <poly id="1107318311" type="building.apartments" color="255,230,230" fill="1" layer="-1.00" shape="1932.626085,776.033053 1926.680068,790.503583 1971.575417,808.769753 1977.521631,794.310334 1932.626085,776.033053"/>
    <poly id="1107318318" type="building.apartments" color="255,230,230" fill="1" layer="-1.00" shape="2052.713356,815.650970 2047.982727,829.184901 2093.758554,844.989579 2098.479714,831.455798 2052.713356,815.650970"/>
    <poly id="1107318319" type="building.apartments" color="255,230,230" fill="1" layer="-1.00" shape="2073.618021,780.081115 2067.852957,793.861748 2105.850215,809.615742 2111.624688,795.823919 2073.618021,780.081115"/>
    <poly id="1112726279" type="amenity.university" color="237,199,199" fill="0" layer="-1.00" shape="864.775983,1528.724262 808.039110,1510.468137 853.831395,1379.289271 717.119423,1333.757383 697.572889,1332.880542 684.383238,1343.059759 642.517905,1428.153674 603.070052,1508.248088 601.930796,1510.580699 637.944789,1523.994806 613.516076,1573.695975 579.123144,1556.967162 548.692066,1618.890072 722.229428,1678.953853 742.795840,1626.622307 825.994777,1656.692716"/>
    <poly id="1112726280" type="landuse.residential" color="235,235,227" fill="0" layer="-3.00" shape="825.994777,1656.692716 864.775983,1528.724262"/>
    <poly id="1112726283" type="landuse.residential" color="235,235,227" fill="0" layer="-3.00" shape="447.394720,777.389813 398.185566,877.673555 316.308672,836.856168"/>
    <poly id="1112726289" type="amenity.university" color="237,199,199" fill="1" layer="-1.00" shape="109.104654,1049.050699 274.652951,1111.589021 389.578667,887.436065 224.793710,806.326060 105.665160,1040.460886 109.104654,1049.050699"/>
    <poly id="1112726290" type="amenity.university" color="237,199,199" fill="0" layer="-1.00" shape="446.055193,985.729454 472.873832,928.988632 402.449887,895.132792 375.339818,950.724737"/>
    <poly id="1112726291" type="landuse.residential" color="235,235,227" fill="0" layer="-3.00" shape="424.918594,1030.430466 446.055193,985.729454"/>
    <poly id="1112726293" type="landuse.residential" color="235,235,227" fill="0" layer="-3.00" shape="353.648504,995.222792 424.918594,1030.430466"/>
    <poly id="1112726294" type="amenity.university" color="237,199,199" fill="0" layer="-1.00" shape="353.648504,995.222792 295.132680,1115.246288 299.059277,1122.565631 370.116719,1146.378533 424.918594,1030.430466"/>
    <poly id="1112726295" type="landuse.residential" color="235,235,227" fill="0" layer="-3.00" shape="423.700881,1073.231086 489.241879,935.507108 584.777342,984.643977 560.701176,1033.752792"/>
    <poly id="1112726296" type="leisure.pitch" color="207,245,201" fill="0" layer="-2.00" shape="652.882150,1075.008691 576.880512,1217.851588 573.880932,1220.597490 570.319408,1221.920822 566.236118,1221.976254 502.788530,1200.442384"/>
    <poly id="1112726297" type="amenity.university" color="237,199,199" fill="0" layer="-1.00" shape="652.882150,1075.008691 654.718951,1071.458164"/>
    <poly id="1112726298" type="landuse.residential" color="235,235,227" fill="0" layer="-3.00" shape="654.718951,1071.458164 675.713360,1030.950402 594.477183,989.468138 573.536858,1031.139454"/>
    <poly id="1112726299" type="amenity.university" color="237,199,199" fill="0" layer="-1.00" shape="423.700881,1073.231086 383.378343,1158.305088 502.788530,1200.442384"/>
    <poly id="1112726300" type="amenity.university" color="237,199,199" fill="0" layer="-1.00" shape="573.536858,1031.139454 569.986582,1038.205604 565.339046,1035.973719 560.701176,1033.752792"/>
    <poly id="1112726303" type="landuse.residential" color="235,235,227" fill="0" layer="-3.00" shape="662.474511,980.684972 613.727798,955.159277"/>
    <poly id="1112728698" type="tourism.hotel" color="207,245,201" fill="0" layer="-2.00" shape="739.313928,1765.775890 787.496532,1782.284969 804.141945,1727.212819 757.927437,1711.242395"/>
    <poly id="1112728699" type="tourism.hotel" color="207,245,201" fill="0" layer="-2.00" shape="739.313928,1765.775890 757.927437,1711.242395"/>
    <poly id="1112728700" type="amenity.university" color="237,199,199" fill="0" layer="-1.00" shape="757.927437,1711.242395 542.630169,1636.567191 518.246154,1689.505374 739.313928,1765.775890"/>
    <poly id="1192226257" type="building.house" color="255,230,230" fill="1" layer="-1.00" shape="769.117340,1159.654567 781.009344,1129.570064 816.997506,1142.408668 804.564479,1173.320883 769.117340,1159.654567"/>
    <poly id="1213307903" type="building.residential" color="255,230,230" fill="1" layer="-1.00" shape="457.744588,2066.004896 465.939334,2047.700024 508.948881,2066.761539 500.753928,2085.055290 457.744588,2066.004896"/>
    <poly id="1213307904" type="building.residential" color="255,230,230" fill="1" layer="-1.00" shape="410.470070,2042.722041 416.291880,2029.128035 457.442747,2046.595934 451.620896,2060.189916 410.470070,2042.722041"/>
    <poly id="1213307905" type="building.residential" color="255,230,230" fill="1" layer="-1.00" shape="472.132534,2041.817448 478.867817,2023.986981 518.831708,2043.078837 512.261214,2056.926861 472.132534,2041.817448"/>
    <poly id="1213307906" type="building.residential" color="255,230,230" fill="1" layer="-1.00" shape="463.703853,2038.705712 471.245612,2022.782304 432.186888,2004.465485 424.645323,2020.400007 463.703853,2038.705712"/>
    <poly id="1213307907" type="building.residential" color="255,230,230" fill="1" layer="-1.00" shape="472.983274,2014.055521 484.451429,1990.051901 442.218842,1973.552058 435.494503,1994.287153 472.983274,2014.055521"/>
    <poly id="1213307908" type="building.residential" color="255,230,230" fill="1" layer="-1.00" shape="523.579772,2034.521821 531.799361,2014.531471 491.327622,1995.901023 484.598084,2016.259201 523.579772,2034.521821"/>
    <poly id="1293034162" type="amenity.school" color="237,199,199" fill="1" layer="-1.00" shape="2349.037039,1635.019898 2368.332297,1564.670873 2371.182098,1554.277660 2292.512962,1530.864089 2220.361841,1509.392496 2194.116130,1595.899812 2349.037039,1635.019898"/>
    <poly id="1293034163" type="amenity.kindergarten" color="237,199,199" fill="1" layer="-1.00" shape="2349.037039,1635.019898 2368.332297,1564.670873 2440.798696,1586.992904 2432.704429,1613.787123 2419.033924,1656.365978 2349.037039,1635.019898"/>
    <poly id="1300661290" type="building.school" color="255,230,230" fill="1" layer="-1.00" shape="2378.213204,1632.821620 2379.917669,1628.596899 2377.026821,1627.405022 2373.568294,1629.313956 2369.724030,1628.722459 2366.821144,1626.632721 2365.565582,1623.157231 2365.305660,1620.100776 2366.162583,1617.273258 2367.363022,1615.926756 2369.704699,1614.498436 2373.627950,1613.880420 2376.493072,1615.283289 2378.480027,1617.219006 2379.492449,1619.600170 2379.504188,1620.475865 2382.760872,1621.973267 2385.218160,1615.676324 2381.179533,1614.078535 2385.944820,1600.289283 2389.981519,1601.742972 2391.076246,1598.901182 2384.033131,1596.866933 2385.148535,1593.437267 2375.556742,1590.882850 2380.683421,1576.357027 2385.813774,1578.439086 2386.710097,1577.129924 2394.316399,1579.988132 2392.670223,1583.591211 2399.079220,1585.900046 2399.772848,1584.382954 2406.575637,1586.952598 2402.387492,1599.769558 2399.119346,1598.837727 2394.617873,1611.714324 2400.051289,1613.681460 2400.357362,1612.369123 2407.584866,1614.666993 2406.908640,1616.061897 2413.414129,1618.469228 2413.897326,1616.877349 2420.380212,1619.018906 2412.935245,1640.272163 2410.294984,1639.309741 2409.266584,1642.128467 2378.213204,1632.821620"/>
    <poly id="1300661291" type="leisure.track" color="207,245,201" fill="0" layer="-2.00" shape="2246.481992,1597.259214 2249.087475,1589.241803 2265.114410,1539.990131 2268.533701,1529.478380"/>
    <poly id="1300661291#1" type="sport.running" color="79,230,125" fill="0" layer="-2.00" shape="2246.481992,1597.259214 2249.087475,1589.241803 2265.114410,1539.990131 2268.533701,1529.478380"/>
    <poly id="1300661292" type="leisure.track" color="207,245,201" fill="0" layer="-2.00" shape="2249.087475,1589.241803 2241.243349,1592.783939 2232.271368,1594.567337 2223.995069,1592.860170 2216.241936,1588.285609 2211.704609,1582.160098 2209.751505,1576.365769 2224.474191,1527.120446 2230.335975,1522.695786 2238.871982,1521.051280 2247.770710,1521.608176 2255.449220,1526.294631 2261.774257,1533.693325 2265.114410,1539.990131"/>
    <poly id="1300661292#1" type="sport.running" color="79,230,125" fill="0" layer="-2.00" shape="2249.087475,1589.241803 2241.243349,1592.783939 2232.271368,1594.567337 2223.995069,1592.860170 2216.241936,1588.285609 2211.704609,1582.160098 2209.751505,1576.365769 2224.474191,1527.120446 2230.335975,1522.695786 2238.871982,1521.051280 2247.770710,1521.608176 2255.449220,1526.294631 2261.774257,1533.693325 2265.114410,1539.990131"/>
    <poly id="1300661293" type="landuse.residential" color="235,235,227" fill="1" layer="-3.00" shape="2292.512962,1530.864089 2314.249120,1460.814830 2246.216305,1436.261135 2272.062086,1363.163240 2427.689773,1418.572640 2379.872409,1557.043720 2371.182098,1554.277660 2292.512962,1530.864089"/>
    <poly id="1300661303" type="landuse.residential" color="235,235,227" fill="1" layer="-3.00" shape="2440.798696,1586.992904 2368.332297,1564.670873 2371.182098,1554.277660 2379.872409,1557.043720 2427.689773,1418.572640 2511.471668,1448.404514 2552.401597,1462.302493 2547.906401,1475.666741 2852.777193,1578.077440 2855.047523,1642.560676 2527.528877,1644.446727 2502.847123,1636.074177 2432.704429,1613.787123 2440.798696,1586.992904"/>
    <poly id="1300661309" type="landuse.commercial" color="209,209,204" fill="1" layer="-3.00" shape="2419.033924,1656.365978 2489.176521,1678.664018 2502.847123,1636.074177 2432.704429,1613.787123 2419.033924,1656.365978"/>
    <poly id="136018512" type="landuse.grass" color="194,194,130" fill="1" layer="-3.00" shape="1277.091536,1655.733071 1321.489345,1559.088493 1340.972572,1566.597227 1295.329963,1664.123301 1277.091536,1655.733071"/>
    <poly id="136764974" type="building.yes" color="255,230,230" fill="1" layer="-1.00" shape="1104.957966,1079.096289 1065.053314,994.178999 1075.819378,989.166271 1115.723807,1074.072515 1104.957966,1079.096289"/>
    <poly id="136764977" type="building.yes" color="255,230,230" fill="1" layer="-1.00" shape="1146.105959,1168.708787 1107.170707,1085.031061 1118.486054,1079.811382 1157.421230,1163.489147 1146.105959,1168.708787"/>
    <poly id="143344637" type="amenity.school" color="237,199,199" fill="1" layer="-1.00" shape="1616.056678,857.135869 1676.631752,881.032261 1674.253100,891.031295 1729.594756,910.907451 1742.177286,879.562098 1746.099988,881.006004 1753.466183,883.656363 1788.376095,787.408046 1657.513224,735.986693 1616.056678,857.135869"/>
    <poly id="148762389" type="building.yes" color="255,230,230" fill="1" layer="-1.00" shape="1390.103733,1706.281552 1393.269368,1696.792875 1415.453517,1704.132232 1412.251440,1713.743348 1390.103733,1706.281552"/>
    <poly id="148762391" type="building.yes" color="255,230,230" fill="1" layer="-1.00" shape="1399.538682,1781.123056 1422.366916,1788.941544 1429.973981,1767.862676 1406.387740,1760.309397 1399.538682,1781.123056"/>
    <poly id="148762395" type="building.yes" color="255,230,230" fill="1" layer="-1.00" shape="1403.148296,1683.931892 1406.313835,1673.024113 1426.831562,1678.911447 1423.666004,1689.819219 1403.148296,1683.931892"/>
    <poly id="154406303" type="building.yes" color="255,230,230" fill="1" layer="-1.00" shape="1016.162494,1759.131386 1048.847091,1683.487235 1125.389405,1716.998245 1092.608268,1785.536803 1016.162494,1759.131386"/>
    <poly id="166720418" type="landuse.commercial" color="209,209,204" fill="1" layer="-3.00" shape="1167.704747,1990.270061 1198.110910,2008.717611 1295.470959,2058.600688 1213.437198,2222.818358 1193.172521,2272.894268 1191.410568,2293.240211 1194.749816,2313.517182 1204.853028,2343.359313 1219.936495,2363.488602 1239.838804,2376.047005 1241.104931,2380.985694 985.323639,2384.446133 971.008251,2383.110007 966.897946,2381.136783 963.246467,2375.088483 963.955017,2365.555307 1009.138192,2270.428358 1020.886857,2257.940767 1031.166685,2241.016173 1115.276861,2076.402972 1156.548960,1994.545205 1160.578881,1991.974005 1167.704747,1990.270061"/>
    <poly id="166724066" type="landuse.commercial" color="209,209,204" fill="1" layer="-3.00" shape="911.843014,2215.469307 912.054371,2202.262038 958.512156,2114.069074 1024.274684,1992.753732 1028.807031,1988.623525 1038.494276,1986.973519 1082.998202,1998.356133 1079.162450,2006.834007 1025.508529,2119.071272 981.272832,2214.639819 911.843014,2215.469307"/>
    <poly id="166725307" type="landuse.residential" color="235,235,227" fill="1" layer="-3.00" shape="892.535273,1928.571146 995.025066,1969.058034 999.231770,1972.515604 1001.570197,1975.787818 1002.413291,1981.109162 1001.697299,1985.176628 988.873106,2011.759037 981.336037,2027.382625 976.783852,2030.748133 973.729451,2031.543394 967.850453,2031.124094 868.683271,1991.335285 892.535273,1928.571146"/>
    <poly id="166725308" type="landuse.residential" color="235,235,227" fill="1" layer="-3.00" shape="849.682231,2128.248952 847.862026,2125.989735 847.039442,2122.187016 847.062304,2053.636877 848.309817,2045.947888 860.620677,2010.314309 954.841075,2050.347414 958.139586,2054.925948 958.787457,2059.185599 956.827234,2065.564891 929.576748,2126.911466 927.475705,2128.514253 925.195843,2129.565123 852.243241,2128.979234 849.682231,2128.248952"/>
    <poly id="166725309" type="landuse.residential" color="235,235,227" fill="1" layer="-3.00" shape="706.899163,1922.883487 672.284648,1906.567644 657.851373,1896.596870 582.475289,1836.132410 580.894645,1832.594997 588.411547,1821.827409 594.020018,1821.241275 726.799082,1864.973143 728.897784,1869.512451 709.689991,1921.603904 706.899163,1922.883487"/>
    <poly id="166725311" type="landuse.residential" color="235,235,227" fill="1" layer="-3.00" shape="719.028493,2041.614104 719.525383,2019.999134 760.545408,2018.733234 759.783070,1994.807113 760.667426,1990.526692 767.076429,1973.166509 846.422033,2006.393516 834.068853,2036.794707 832.122187,2038.550636 827.802832,2040.128077 719.028493,2041.614104"/>
    <poly id="166725312" type="landuse.residential" color="235,235,227" fill="1" layer="-3.00" shape="561.752350,2040.178745 551.064494,1973.048957 551.108871,1970.709032 553.625083,1968.135975 666.513987,1965.350713 674.643663,1968.876882 716.787208,1987.263610 706.912712,2012.298579 705.004358,2022.491090 703.116156,2039.080430 699.146469,2041.872732 561.752350,2040.178745"/>
    <poly id="166725313" type="building.apartments" color="255,230,230" fill="1" layer="-1.00" shape="731.757400,1998.934546 745.270815,1967.065115 759.985762,1973.251573 746.472312,2005.120985 731.757400,1998.934546"/>
    <poly id="166725315" type="landuse.residential" color="235,235,227" fill="1" layer="-3.00" shape="722.874958,1927.977371 742.248405,1875.462398 743.529959,1873.094611 744.998013,1871.844064 747.361968,1869.971593 877.496924,1920.293475 881.373785,1923.289823 881.425448,1927.102989 857.936353,1984.329915 855.139068,1985.132813 853.095422,1984.650514 725.000609,1933.802384 723.180195,1931.532103 722.874958,1927.977371"/>
    <poly id="166725317" type="landuse.residential" color="235,235,227" fill="1" layer="-3.00" shape="544.751991,1954.032065 534.356606,1902.841193 533.873929,1893.235460 535.547655,1880.496127 544.044602,1864.094166 558.564199,1842.554834 561.023236,1842.077969 564.314784,1842.620876 572.356533,1848.775745 668.857224,1922.667880 670.030403,1928.450373 668.121914,1938.631806 662.167617,1950.908117 658.130299,1955.031770 651.503526,1955.631693 550.418230,1957.003994 544.751991,1954.032065"/>
    <poly id="166725896" type="amenity.parking" color="184,184,179" fill="1" layer="-1.00" shape="962.168897,1932.107071 965.089140,1921.402012 999.946481,1931.085594 1009.658621,1931.974107 1059.125748,1926.725755 1073.939266,1927.545297 1092.934685,1934.916021 1109.825368,1943.623493 1100.461412,1962.841647 1093.477552,1975.042923 1026.892349,1959.690688 962.168897,1932.107071"/>
    <poly id="166770333" type="landuse.commercial" color="209,209,204" fill="1" layer="-3.00" shape="1259.868498,1780.969386 1348.520436,1577.792746 1357.084092,1569.040510 1380.457502,1560.088347 1395.757919,1558.861826 1431.689277,1572.601229 1343.290019,1757.247641 1318.452315,1807.872774 1259.868498,1780.969386"/>
    <poly id="166770334" type="landuse.commercial" color="209,209,204" fill="1" layer="-3.00" shape="1232.379135,1843.848230 1259.868498,1780.969386 1318.452315,1807.872774 1288.476629,1867.115313 1232.379135,1843.848230"/>
    <poly id="166770335" type="building.yes" color="255,230,230" fill="1" layer="-1.00" shape="1182.024409,1958.091014 1216.507111,1891.492084 1221.169588,1889.233877 1226.068358,1886.850524 1245.814944,1893.457468 1246.617477,1904.943633 1258.178792,1913.058153 1226.356275,1984.920474 1218.374524,1981.757753 1200.546496,1971.299984 1182.024409,1958.091014"/>
    <poly id="166770346" type="landuse.residential" color="235,235,227" fill="1" layer="-3.00" shape="1241.268939,1992.379901 1283.398486,1897.794565 1287.954267,1894.684146 1296.113566,1894.075012 1455.584716,1952.256212 1459.763738,1959.317539 1458.320575,1965.944739 1430.018402,2025.774062 1368.183793,2012.506422 1353.902405,2013.719256 1334.012630,2015.517849 1309.982157,2013.802463 1280.304876,2009.125643 1247.000925,2000.939054 1238.745205,1998.633705 1239.836132,1995.536830 1241.268939,1992.379901"/>
    <poly id="166770353" type="building.yes" color="255,230,230" fill="1" layer="-1.00" shape="1287.685440,1844.486763 1303.828511,1811.241125 1296.629281,1807.524517 1298.239889,1804.841929 1293.239054,1802.492563 1291.250204,1806.067205 1287.139747,1804.093851 1285.500888,1806.798996 1276.649860,1802.716679 1262.519506,1834.150191 1258.061076,1843.057699 1275.587482,1851.612718 1277.503936,1846.908197 1282.118960,1848.885817 1284.863979,1843.504895 1287.685440,1844.486763"/>
    <poly id="166771694" type="building.apartments" color="255,230,230" fill="1" layer="-1.00" shape="876.993730,1988.539669 882.649129,1972.453674 977.904374,2011.563857 978.765596,2011.895887 984.789063,1998.377112 991.700338,2000.511990 984.786966,2015.096057 982.539114,2014.294981 980.565058,2019.654467 978.843834,2024.001630 975.032329,2025.827129 970.668371,2024.112329 969.170439,2026.671493 876.993730,1988.539669"/>
    <poly id="166771703" type="building.apartments" color="255,230,230" fill="1" layer="-1.00" shape="806.195602,1911.015565 810.133720,1900.972954 854.804923,1918.328159 844.784659,1943.874945 833.406308,1939.450298 839.488406,1923.946097 806.195602,1911.015565"/>
    <poly id="166771705" type="building.apartments" color="255,230,230" fill="1" layer="-1.00" shape="742.477664,1923.953066 754.728292,1891.612962 792.607677,1905.811574 796.173648,1896.405952 749.137681,1878.772625 733.118820,1921.042205 729.234259,1919.587083 725.456971,1929.549939 765.833712,1944.701305 769.813203,1934.203555 742.477664,1923.953066"/>
    <poly id="166771706" type="building.apartments" color="255,230,230" fill="1" layer="-1.00" shape="858.373870,2027.152378 862.805553,2014.896820 955.496874,2053.786533 957.310312,2055.546953 956.340138,2059.118959 954.122796,2065.490647 858.373870,2027.152378"/>
    <poly id="166771711" type="building.apartments" color="255,230,230" fill="1" layer="-1.00" shape="764.860299,1985.236853 768.561461,1975.275043 841.479530,2005.540294 829.605897,2033.396109 720.613146,2035.627895 720.197695,2023.948012 828.425568,2021.460512 831.129991,2013.807208 764.860299,1985.236853"/>
    <poly id="166771715" type="building.apartments" color="255,230,230" fill="1" layer="-1.00" shape="885.003671,1957.942387 894.381123,1933.424339 986.530769,1969.527813 985.043180,1972.851824 992.232066,1975.803369 990.244190,1980.143053 993.329521,1981.631263 988.856401,1990.838444 979.620434,1987.149629 981.574623,1981.025421 899.688985,1948.596806 894.256127,1962.140893 885.003671,1957.942387"/>
    <poly id="166771716" type="building.apartments" color="255,230,230" fill="1" layer="-1.00" shape="781.178735,1951.721849 791.619662,1924.916479 801.188871,1928.600618 794.850710,1944.873305 855.423932,1968.221551 851.321246,1978.765282 781.178735,1951.721849"/>
    <poly id="166774645" type="building.apartments" color="255,230,230" fill="1" layer="-1.00" shape="565.297702,2036.283468 565.694636,1991.908555 578.366141,1992.013665 578.108891,2021.441622 578.089148,2023.492955 611.781575,2023.789432 611.661538,2036.685051 565.297702,2036.283468"/>
    <poly id="166774648" type="building.apartments" color="255,230,230" fill="1" layer="-1.00" shape="590.490201,1835.402733 596.503178,1827.449451 634.948399,1856.651403 648.375866,1838.796767 723.282888,1864.710404 717.013394,1883.232835 706.749330,1879.558196 708.709446,1873.178855 654.591828,1855.619830 655.808671,1851.290541 652.990603,1850.563791 636.180558,1872.389067 590.490201,1835.402733"/>
    <poly id="166774650" type="building.apartments" color="255,230,230" fill="1" layer="-1.00" shape="625.365004,2038.483578 626.432737,2025.275752 687.382505,2024.459710 686.912812,2012.292743 689.253087,1996.750515 663.928811,1986.694683 671.084603,1971.064932 712.928744,1989.134190 707.093211,2003.149496 705.212259,2002.731539 702.568054,2012.712297 698.711537,2012.620488 698.909915,2024.436357 698.847778,2037.397705 625.365004,2038.483578"/>
    <poly id="166774652" type="building.apartments" color="255,230,230" fill="1" layer="-1.00" shape="543.031104,1875.682587 560.766318,1846.992925 625.555102,1898.199296 616.516282,1909.752509 562.824602,1866.777150 560.575721,1870.111564 564.439716,1872.852978 555.935658,1885.928966 543.031104,1875.682587"/>
    <poly id="166774655" type="building.apartments" color="255,230,230" fill="1" layer="-1.00" shape="559.604938,1986.492179 559.505164,1969.331110 640.901379,1968.425655 641.417467,1994.528141 629.158982,1994.694521 628.764043,1984.533255 571.298583,1983.284509 570.883865,1989.897895 563.218844,1989.746981 562.913554,1986.192252 559.604938,1986.492179"/>
    <poly id="166774657" type="building.apartments" color="255,230,230" fill="1" layer="-1.00" shape="646.088695,1879.294737 652.454970,1870.017360 682.424342,1893.358695 684.728448,1894.092426 685.714986,1891.030163 712.907652,1900.561805 706.985264,1915.897617 679.782102,1905.590057 646.088695,1879.294737"/>
    <poly id="166774658" type="building.apartments" color="255,230,230" fill="1" layer="-1.00" shape="626.101701,1919.534029 635.124084,1907.471053 657.054964,1924.191712 654.802609,1927.271155 666.095400,1931.696775 659.171725,1948.299018 645.050674,1942.392894 647.522087,1936.516594 626.101701,1919.534029"/>
    <poly id="166774661" type="building.apartments" color="255,230,230" fill="1" layer="-1.00" shape="536.167550,1905.111572 544.054750,1894.981954 552.570092,1900.964072 550.811803,1903.271838 559.578053,1909.505552 553.819685,1917.976483 558.721793,1921.457701 556.710146,1924.034991 564.965741,1930.519553 560.455031,1936.933562 625.040865,1936.056722 624.983136,1950.038002 558.604637,1950.684193 557.723231,1942.558424 546.885785,1933.813956 548.383632,1931.254729 541.195946,1924.899805 547.179042,1917.556671 541.248013,1913.313353 542.996780,1911.005714 536.167550,1905.111572"/>
    <poly id="166776695" type="leisure.pitch" color="207,245,201" fill="1" layer="-2.00" shape="1739.140620,1947.879343 1771.633283,1855.532473 1809.794045,1868.821787 1777.291583,1961.168659 1739.140620,1947.879343"/>