<?xml version="1.0" encoding="UTF-8"?>

<!-- generated on 09/03/24 15:09:24 by Eclipse SUMO netconvert Version 1.8.0
<configuration xmlns:xsi="http://www.w3.org/2001/XMLSchema-instance" xsi:noNamespaceSchemaLocation="http://sumo.dlr.de/xsd/netconvertConfiguration.xsd">

    <input>
        <type-files value="E:\sumo-1.8.0\tools\data\typemap\osmNetconvert.typ.xml"/>
        <osm-files value="osm_bbox.osm.xml"/>
    </input>

    <output>
        <output-file value="osm.net.xml"/>
        <output.street-names value="true"/>
        <output.original-names value="true"/>
    </output>

    <projection>
        <proj.utm value="true"/>
    </projection>

    <processing>
        <geometry.remove value="true"/>
        <roundabouts.guess value="true"/>
    </processing>

    <tls_building>
        <tls.discard-simple value="true"/>
        <tls.join value="true"/>
        <tls.guess-signals value="true"/>
        <tls.default-type value="actuated"/>
    </tls_building>

    <ramp_guessing>
        <ramps.guess value="true"/>
    </ramp_guessing>

    <edge_removal>
        <keep-edges.by-vclass value="passenger"/>
    </edge_removal>

    <junctions>
        <junctions.join value="true"/>
        <junctions.corner-detail value="5"/>
    </junctions>

    <report>
        <verbose value="true"/>
        <aggregate-warnings value="5"/>
    </report>

</configuration>
-->

<net version="1.6" junctionCornerDetail="5" limitTurnSpeed="5.50" xmlns:xsi="http://www.w3.org/2001/XMLSchema-instance" xsi:noNamespaceSchemaLocation="http://sumo.dlr.de/xsd/net_file.xsd">

    <location netOffset="-356974.53,-3462522.55" convBoundary="0.00,0.00,2907.69,2390.37" origBoundary="121.493103,31.288334,121.527723,31.331631" projParameter="+proj=utm +zone=51 +ellps=WGS84 +datum=WGS84 +units=m +no_defs"/>

    <type id="highway.bridleway" priority="1" numLanes="1" speed="2.78" allow="pedestrian" oneway="1" width="2.00"/>
    <type id="highway.bus_guideway" priority="1" numLanes="1" speed="27.78" allow="bus" oneway="1"/>
    <type id="highway.cycleway" priority="1" numLanes="1" speed="8.33" allow="bicycle" oneway="0" width="1.00"/>
    <type id="highway.footway" priority="1" numLanes="1" speed="2.78" allow="pedestrian" oneway="1" width="2.00"/>
    <type id="highway.ford" priority="1" numLanes="1" speed="2.78" allow="army" oneway="0"/>
    <type id="highway.living_street" priority="2" numLanes="1" speed="2.78" disallow="tram rail_urban rail rail_electric rail_fast ship" oneway="0"/>
    <type id="highway.motorway" priority="14" numLanes="2" speed="39.44" allow="private emergency authority army vip passenger hov taxi bus coach delivery truck trailer motorcycle evehicle custom1 custom2" oneway="1"/>
    <type id="highway.motorway_link" priority="9" numLanes="1" speed="22.22" allow="private emergency authority army vip passenger hov taxi bus coach delivery truck trailer motorcycle evehicle custom1 custom2" oneway="1"/>
    <type id="highway.path" priority="1" numLanes="1" speed="2.78" allow="pedestrian bicycle" oneway="0" width="2.00"/>
    <type id="highway.pedestrian" priority="1" numLanes="1" speed="2.78" allow="pedestrian" oneway="1" width="2.00"/>
    <type id="highway.primary" priority="12" numLanes="2" speed="27.78" disallow="tram rail_urban rail rail_electric rail_fast ship" oneway="0"/>
    <type id="highway.primary_link" priority="7" numLanes="1" speed="22.22" disallow="tram rail_urban rail rail_electric rail_fast ship" oneway="0"/>
    <type id="highway.raceway" priority="15" numLanes="2" speed="83.33" allow="vip" oneway="0"/>
    <type id="highway.residential" priority="3" numLanes="1" speed="13.89" disallow="tram rail_urban rail rail_electric rail_fast ship" oneway="0"/>
    <type id="highway.secondary" priority="11" numLanes="1" speed="27.78" disallow="tram rail_urban rail rail_electric rail_fast ship" oneway="0"/>
    <type id="highway.secondary_link" priority="6" numLanes="1" speed="22.22" disallow="tram rail_urban rail rail_electric rail_fast ship" oneway="0"/>
    <type id="highway.service" priority="1" numLanes="1" speed="5.56" allow="pedestrian delivery bicycle" oneway="0"/>
    <type id="highway.stairs" priority="1" numLanes="1" speed="1.39" allow="pedestrian" oneway="1" width="2.00"/>
    <type id="highway.step" priority="1" numLanes="1" speed="1.39" allow="pedestrian" oneway="1" width="2.00"/>
    <type id="highway.steps" priority="1" numLanes="1" speed="1.39" allow="pedestrian" oneway="1" width="2.00"/>
    <type id="highway.tertiary" priority="10" numLanes="1" speed="22.22" disallow="tram rail_urban rail rail_electric rail_fast ship" oneway="0"/>
    <type id="highway.tertiary_link" priority="5" numLanes="1" speed="22.22" disallow="tram rail_urban rail rail_electric rail_fast ship" oneway="0"/>
    <type id="highway.track" priority="1" numLanes="1" speed="5.56" allow="pedestrian motorcycle moped bicycle" oneway="0"/>
    <type id="highway.trunk" priority="13" numLanes="2" speed="27.78" disallow="pedestrian bicycle tram rail_urban rail rail_electric rail_fast ship" oneway="0"/>
    <type id="highway.trunk_link" priority="8" numLanes="1" speed="22.22" disallow="pedestrian bicycle tram rail_urban rail rail_electric rail_fast ship" oneway="0"/>
    <type id="highway.unclassified" priority="4" numLanes="1" speed="13.89" disallow="tram rail_urban rail rail_electric rail_fast ship" oneway="0"/>
    <type id="highway.unsurfaced" priority="1" numLanes="1" speed="8.33" disallow="tram rail_urban rail rail_electric rail_fast ship" oneway="0"/>
    <type id="railway.highspeed" priority="21" numLanes="1" speed="69.44" allow="rail_fast" oneway="1"/>
    <type id="railway.light_rail" priority="19" numLanes="1" speed="27.78" allow="rail_urban" oneway="1"/>
    <type id="railway.preserved" priority="16" numLanes="1" speed="27.78" allow="rail" oneway="1"/>
    <type id="railway.rail" priority="20" numLanes="1" speed="44.44" allow="rail" oneway="1"/>
    <type id="railway.subway" priority="18" numLanes="1" speed="27.78" allow="rail_urban" oneway="1"/>
    <type id="railway.tram" priority="17" numLanes="1" speed="13.89" allow="tram" oneway="1"/>

    <edge id=":10487419-AddedOffRampNode_0" function="internal">
        <lane id=":10487419-AddedOffRampNode_0_0" index="0" disallow="pedestrian bicycle tram rail_urban rail rail_electric rail_fast ship" speed="27.78" length="8.27" shape="2221.61,1827.79 2219.11,1827.48 2217.31,1828.02 2215.50,1828.57 2213.00,1828.26"/>
        <lane id=":10487419-AddedOffRampNode_0_1" index="1" disallow="pedestrian bicycle tram rail_urban rail rail_electric rail_fast ship" speed="27.78" length="8.27" shape="2221.61,1827.79 2214.03,1825.23"/>
        <lane id=":10487419-AddedOffRampNode_0_2" index="2" disallow="pedestrian bicycle tram rail_urban rail rail_electric rail_fast ship" speed="27.78" length="8.27" shape="2222.63,1824.76 2215.05,1822.20"/>
    </edge>
    <edge id=":1123309048-AddedOffRampNode_0" function="internal">
        <lane id=":1123309048-AddedOffRampNode_0_0" index="0" disallow="tram rail_urban rail rail_electric rail_fast ship" speed="27.78" length="8.92" shape="832.23,1366.76 829.36,1366.82 827.40,1368.47 825.44,1370.12 822.57,1370.18"/>
        <lane id=":1123309048-AddedOffRampNode_0_1" index="1" disallow="tram rail_urban rail rail_electric rail_fast ship" speed="27.78" length="8.92" shape="832.23,1366.76 829.74,1366.42 827.92,1366.96 826.11,1367.49 823.62,1367.16"/>
        <lane id=":1123309048-AddedOffRampNode_0_2" index="2" disallow="tram rail_urban rail rail_electric rail_fast ship" speed="27.78" length="8.92" shape="832.23,1366.76 824.67,1364.14"/>
        <lane id=":1123309048-AddedOffRampNode_0_3" index="3" disallow="tram rail_urban rail rail_electric rail_fast ship" speed="27.78" length="8.92" shape="833.28,1363.73 825.72,1361.11"/>
    </edge>
    <edge id=":11999265104_0" function="internal">
        <lane id=":11999265104_0_0" index="0" disallow="tram rail_urban rail rail_electric rail_fast ship" speed="22.22" length="3.12" shape="1622.57,1993.00 1625.56,1993.87"/>
    </edge>
    <edge id=":11999265104_1" function="internal">
        <lane id=":11999265104_1_0" index="0" disallow="tram rail_urban rail rail_electric rail_fast ship" speed="22.22" length="3.12" shape="1621.56,1996.04 1624.52,1997.01"/>
    </edge>
    <edge id=":1290439802#0-AddedOnRampNode_0" function="internal">
        <lane id=":1290439802#0-AddedOnRampNode_0_0" index="0" disallow="tram rail_urban rail rail_electric rail_fast ship" speed="27.78" length="8.00" shape="1845.62,1714.35 1838.09,1711.66"/>
        <lane id=":1290439802#0-AddedOnRampNode_0_1" index="1" disallow="tram rail_urban rail rail_electric rail_fast ship" speed="27.78" length="8.00" shape="1846.70,1711.34 1839.16,1708.65"/>
    </edge>
    <edge id=":1290439804-AddedOnRampNode_0" function="internal">
        <lane id=":1290439804-AddedOnRampNode_0_0" index="0" disallow="pedestrian bicycle tram rail_urban rail rail_electric rail_fast ship" speed="27.78" length="8.00" shape="2352.98,1852.90 2360.55,1855.48"/>
        <lane id=":1290439804-AddedOnRampNode_0_1" index="1" disallow="pedestrian bicycle tram rail_urban rail rail_electric rail_fast ship" speed="27.78" length="8.00" shape="2351.95,1855.93 2359.52,1858.51"/>
    </edge>
    <edge id=":1290439805#1-AddedOffRampNode_0" function="internal">
        <lane id=":1290439805#1-AddedOffRampNode_0_0" index="0" disallow="tram rail_urban rail rail_electric rail_fast ship" speed="27.78" length="8.27" shape="1872.34,1678.98 1874.83,1679.26 1876.62,1678.67 1878.41,1678.06 1880.91,1678.28"/>
        <lane id=":1290439805#1-AddedOffRampNode_0_1" index="1" disallow="tram rail_urban rail rail_electric rail_fast ship" speed="27.78" length="8.27" shape="1872.34,1678.98 1879.98,1681.35"/>
        <lane id=":1290439805#1-AddedOffRampNode_0_2" index="2" disallow="tram rail_urban rail rail_electric rail_fast ship" speed="27.78" length="8.27" shape="1871.41,1682.04 1879.06,1684.41"/>
    </edge>
    <edge id=":1290439805#1-AddedOnRampNode_0" function="internal">
        <lane id=":1290439805#1-AddedOnRampNode_0_0" index="0" disallow="tram rail_urban rail rail_electric rail_fast ship" speed="27.78" length="8.00" shape="1851.17,1672.06 1858.77,1674.54"/>
        <lane id=":1290439805#1-AddedOnRampNode_0_1" index="1" disallow="tram rail_urban rail rail_electric rail_fast ship" speed="27.78" length="8.00" shape="1850.17,1675.10 1857.77,1677.58"/>
    </edge>
    <edge id=":1294773295-AddedOnRampNode_0" function="internal">
        <lane id=":1294773295-AddedOnRampNode_0_0" index="0" disallow="pedestrian bicycle tram rail_urban rail rail_electric rail_fast ship" speed="22.22" length="8.00" shape="1353.64,1532.97 1346.08,1530.35"/>
        <lane id=":1294773295-AddedOnRampNode_0_1" index="1" disallow="pedestrian bicycle tram rail_urban rail rail_electric rail_fast ship" speed="22.22" length="8.00" shape="1354.68,1529.94 1347.12,1527.33"/>
        <lane id=":1294773295-AddedOnRampNode_0_2" index="2" disallow="pedestrian bicycle tram rail_urban rail rail_electric rail_fast ship" speed="22.22" length="8.00" shape="1355.73,1526.92 1348.17,1524.30"/>
        <lane id=":1294773295-AddedOnRampNode_0_3" index="3" disallow="pedestrian bicycle tram rail_urban rail rail_electric rail_fast ship" speed="22.22" length="8.00" shape="1356.78,1523.90 1349.22,1521.28"/>
    </edge>
    <edge id=":136362667#0-AddedOnRampNode_0" function="internal">
        <lane id=":136362667#0-AddedOnRampNode_0_0" index="0" disallow="tram rail_urban rail rail_electric rail_fast ship" speed="27.78" length="8.00" shape="826.32,1316.38 833.89,1318.96"/>
        <lane id=":136362667#0-AddedOnRampNode_0_1" index="1" disallow="tram rail_urban rail rail_electric rail_fast ship" speed="27.78" length="8.00" shape="825.29,1319.41 832.86,1321.99"/>
    </edge>
    <edge id=":1494769964_0" function="internal">
        <lane id=":1494769964_0_0" index="0" disallow="tram rail_urban rail rail_electric rail_fast ship" speed="3.65" length="4.67" shape="255.34,2179.17 254.11,2179.93 253.22,2179.97 252.65,2179.27 252.42,2177.85"/>
    </edge>
    <edge id=":1781735772_0" function="internal">
        <lane id=":1781735772_0_0" index="0" disallow="tram rail_urban rail rail_electric rail_fast ship" speed="4.86" length="9.05" shape="563.20,1836.66 561.00,1835.40 559.02,1835.23 557.24,1836.13 555.68,1838.12"/>
    </edge>
    <edge id=":1781735772_1" function="internal">
        <lane id=":1781735772_1_0" index="0" disallow="tram rail_urban rail rail_electric rail_fast ship" speed="8.33" length="14.45" shape="563.20,1836.66 551.85,1827.72"/>
    </edge>
    <edge id=":1781735772_2" function="internal">
        <lane id=":1781735772_2_0" index="0" disallow="tram rail_urban rail rail_electric rail_fast ship" speed="3.65" length="2.34" shape="563.20,1836.66 562.75,1835.29 562.92,1834.41"/>
    </edge>
    <edge id=":1781735772_9" function="internal">
        <lane id=":1781735772_9_0" index="0" disallow="tram rail_urban rail rail_electric rail_fast ship" speed="3.65" length="2.34" shape="562.92,1834.41 563.73,1834.03 565.17,1834.14"/>
    </edge>
    <edge id=":1781735772_3" function="internal">
        <lane id=":1781735772_3_0" index="0" disallow="tram rail_urban rail rail_electric rail_fast ship" speed="8.33" length="14.42" shape="553.84,1825.21 565.17,1834.14"/>
    </edge>
    <edge id=":1781735772_4" function="internal">
        <lane id=":1781735772_4_0" index="0" disallow="tram rail_urban rail rail_electric rail_fast ship" speed="4.86" length="5.66" shape="553.84,1825.21 556.34,1827.92 557.03,1829.76"/>
    </edge>
    <edge id=":1781735772_5" function="internal">
        <lane id=":1781735772_5_0" index="0" disallow="tram rail_urban rail rail_electric rail_fast ship" speed="3.65" length="2.34" shape="553.84,1825.21 554.28,1826.59 554.09,1827.46"/>
    </edge>
    <edge id=":1781735772_10" function="internal">
        <lane id=":1781735772_10_0" index="0" disallow="tram rail_urban rail rail_electric rail_fast ship" speed="4.86" length="8.77" shape="557.03,1829.76 557.48,1830.97 557.26,1834.37 555.68,1838.12"/>
    </edge>
    <edge id=":1781735772_11" function="internal">
        <lane id=":1781735772_11_0" index="0" disallow="tram rail_urban rail rail_electric rail_fast ship" speed="3.65" length="2.34" shape="554.09,1827.46 553.28,1827.84 551.85,1827.72"/>
    </edge>
    <edge id=":1781735772_6" function="internal">
        <lane id=":1781735772_6_0" index="0" disallow="tram rail_urban rail rail_electric rail_fast ship" speed="4.86" length="9.80" shape="552.90,1836.52 554.02,1833.92 554.22,1831.59 553.49,1829.52 551.85,1827.72"/>
    </edge>
    <edge id=":1781735772_7" function="internal">
        <lane id=":1781735772_7_0" index="0" disallow="tram rail_urban rail rail_electric rail_fast ship" speed="4.86" length="14.75" shape="552.90,1836.52 555.46,1833.28 558.35,1831.80 561.59,1832.09 565.17,1834.14"/>
    </edge>
    <edge id=":1781735772_8" function="internal">
        <lane id=":1781735772_8_0" index="0" disallow="tram rail_urban rail rail_electric rail_fast ship" speed="1.39" length="4.67" shape="552.90,1836.52 554.20,1835.88 555.09,1835.93 555.58,1836.68 555.68,1838.12"/>
    </edge>
    <edge id=":1781735803_0" function="internal">
        <lane id=":1781735803_0_0" index="0" disallow="tram rail_urban rail rail_electric rail_fast ship" speed="4.86" length="9.04" shape="687.81,1927.30 685.44,1926.49 683.44,1926.67 681.79,1927.84 680.52,1929.99"/>
    </edge>
    <edge id=":1781735803_1" function="internal">
        <lane id=":1781735803_1_0" index="0" disallow="tram rail_urban rail rail_electric rail_fast ship" speed="8.33" length="14.31" shape="687.81,1927.30 675.32,1920.33"/>
    </edge>
    <edge id=":1781735803_2" function="internal">
        <lane id=":1781735803_2_0" index="0" disallow="tram rail_urban rail rail_electric rail_fast ship" speed="3.65" length="2.34" shape="687.81,1927.30 687.11,1926.04 687.12,1925.15"/>
    </edge>
    <edge id=":1781735803_9" function="internal">
        <lane id=":1781735803_9_0" index="0" disallow="tram rail_urban rail rail_electric rail_fast ship" speed="3.65" length="2.34" shape="687.12,1925.15 687.84,1924.62 689.27,1924.45"/>
    </edge>
    <edge id=":1781735803_3" function="internal">
        <lane id=":1781735803_3_0" index="0" disallow="tram rail_urban rail rail_electric rail_fast ship" speed="8.33" length="14.06" shape="676.99,1917.60 689.27,1924.45"/>
    </edge>
    <edge id=":1781735803_4" function="internal">
        <lane id=":1781735803_4_0" index="0" disallow="tram rail_urban rail rail_electric rail_fast ship" speed="4.86" length="5.34" shape="676.99,1917.60 679.80,1919.96 680.59,1921.44"/>
    </edge>
    <edge id=":1781735803_5" function="internal">
        <lane id=":1781735803_5_0" index="0" disallow="tram rail_urban rail rail_electric rail_fast ship" speed="3.65" length="2.34" shape="676.99,1917.60 677.60,1918.91 677.52,1919.80"/>
    </edge>
    <edge id=":1781735803_10" function="internal">
        <lane id=":1781735803_10_0" index="0" disallow="tram rail_urban rail rail_electric rail_fast ship" speed="4.86" length="8.89" shape="680.59,1921.44 681.32,1922.82 681.56,1926.16 680.52,1929.99"/>
    </edge>
    <edge id=":1781735803_11" function="internal">
        <lane id=":1781735803_11_0" index="0" disallow="tram rail_urban rail rail_electric rail_fast ship" speed="3.65" length="2.34" shape="677.52,1919.80 676.76,1920.28 675.32,1920.33"/>
    </edge>
    <edge id=":1781735803_6" function="internal">
        <lane id=":1781735803_6_0" index="0" disallow="tram rail_urban rail rail_electric rail_fast ship" speed="4.86" length="9.64" shape="677.56,1928.77 678.29,1926.13 678.17,1923.84 677.17,1921.91 675.32,1920.33"/>
    </edge>
    <edge id=":1781735803_7" function="internal">
        <lane id=":1781735803_7_0" index="0" disallow="tram rail_urban rail rail_electric rail_fast ship" speed="4.86" length="14.50" shape="677.56,1928.77 679.61,1925.31 682.25,1923.44 685.46,1923.15 689.27,1924.45"/>
    </edge>
    <edge id=":1781735803_8" function="internal">
        <lane id=":1781735803_8_0" index="0" disallow="tram rail_urban rail rail_electric rail_fast ship" speed="1.39" length="4.67" shape="677.56,1928.77 678.76,1927.97 679.65,1927.90 680.24,1928.58 680.52,1929.99"/>
    </edge>
    <edge id=":1781735908_0" function="internal">
        <lane id=":1781735908_0_0" index="0" disallow="tram rail_urban rail rail_electric rail_fast ship" speed="1.39" length="14.03" shape="540.07,1969.83 539.42,1966.29 538.72,1962.94 537.93,1959.62 536.98,1956.15"/>
    </edge>
    <edge id=":1781735908_1" function="internal">
        <lane id=":1781735908_1_0" index="0" disallow="tram rail_urban rail rail_electric rail_fast ship" speed="1.39" length="14.87" shape="540.07,1969.83 539.94,1965.65 541.23,1962.66 543.94,1960.86 548.07,1960.23"/>
    </edge>
    <edge id=":1781735908_2" function="internal">
        <lane id=":1781735908_2_0" index="0" disallow="tram rail_urban rail rail_electric rail_fast ship" speed="1.39" length="4.67" shape="540.07,1969.83 540.65,1968.51 541.37,1967.98 542.23,1968.23 543.22,1969.27"/>
    </edge>
    <edge id=":1781735908_3" function="internal">
        <lane id=":1781735908_3_0" index="0" disallow="tram rail_urban rail rail_electric rail_fast ship" speed="1.39" length="9.05" shape="548.09,1963.43 545.58,1963.81 543.93,1964.91 543.14,1966.73 543.22,1969.27"/>
    </edge>
    <edge id=":1781735908_4" function="internal">
        <lane id=":1781735908_4_0" index="0" disallow="tram rail_urban rail rail_electric rail_fast ship" speed="1.39" length="14.39" shape="548.09,1963.43 544.02,1963.00 540.82,1961.64 538.47,1959.36 536.98,1956.15"/>
    </edge>
    <edge id=":1781735908_5" function="internal">
        <lane id=":1781735908_5_0" index="0" disallow="tram rail_urban rail rail_electric rail_fast ship" speed="1.39" length="4.67" shape="548.09,1963.43 546.89,1962.64 546.48,1961.84 546.88,1961.04 548.07,1960.23"/>
    </edge>
    <edge id=":1781735908_6" function="internal">
        <lane id=":1781735908_6_0" index="0" disallow="tram rail_urban rail rail_electric rail_fast ship" speed="1.39" length="10.20" shape="540.06,1955.26 541.10,1957.45 542.78,1959.01 545.11,1959.94 548.07,1960.23"/>
    </edge>
    <edge id=":1781735908_7" function="internal">
        <lane id=":1781735908_7_0" index="0" disallow="tram rail_urban rail rail_electric rail_fast ship" speed="1.39" length="14.37" shape="540.06,1955.26 541.01,1958.79 541.83,1962.22 542.56,1965.68 543.22,1969.27"/>
    </edge>
    <edge id=":1781735908_8" function="internal">
        <lane id=":1781735908_8_0" index="0" disallow="tram rail_urban rail rail_electric rail_fast ship" speed="1.39" length="4.67" shape="540.06,1955.26 539.62,1956.64 538.96,1957.24 538.08,1957.08 536.98,1956.15"/>
    </edge>
    <edge id=":1781735921_0" function="internal">
        <lane id=":1781735921_0_0" index="0" disallow="tram rail_urban rail rail_electric rail_fast ship" speed="7.45" length="2.65" shape="553.77,2043.62 553.26,2043.03 552.97,2042.57 552.79,2042.05 552.65,2041.29"/>
    </edge>
    <edge id=":1781735921_1" function="internal">
        <lane id=":1781735921_1_0" index="0" disallow="tram rail_urban rail rail_electric rail_fast ship" speed="7.64" length="0.88" shape="555.80,2040.73 555.85,2040.99 555.90,2041.16 556.00,2041.31 556.17,2041.51"/>
    </edge>
    <edge id=":1781939174_0" function="internal">
        <lane id=":1781939174_0_0" index="0" disallow="tram rail_urban rail rail_electric rail_fast ship" speed="3.65" length="4.67" shape="563.02,2049.31 563.21,2050.74 562.88,2051.56 562.01,2051.79 560.62,2051.42"/>
    </edge>
    <edge id=":1782735824_0" function="internal">
        <lane id=":1782735824_0_0" index="0" disallow="tram rail_urban rail rail_electric rail_fast ship" speed="3.65" length="4.67" shape="1443.61,2020.55 1442.34,2021.24 1441.45,2021.22 1440.93,2020.49 1440.78,2019.06"/>
    </edge>
    <edge id=":1782735842_0" function="internal">
        <lane id=":1782735842_0_0" index="0" disallow="tram rail_urban rail rail_electric rail_fast ship" speed="3.65" length="4.67" shape="718.18,1924.34 716.99,1925.16 716.10,1925.23 715.51,1924.56 715.21,1923.15"/>
    </edge>
    <edge id=":1871924355_0" function="internal">
        <lane id=":1871924355_0_0" index="0" disallow="tram rail_urban rail rail_electric rail_fast ship" speed="3.65" length="4.67" shape="285.62,1124.58 285.08,1125.91 284.37,1126.46 283.51,1126.23 282.49,1125.21"/>
    </edge>
    <edge id=":1871924379_0" function="internal">
        <lane id=":1871924379_0_0" index="0" disallow="pedestrian bicycle tram rail_urban rail rail_electric rail_fast ship" speed="7.11" length="9.90" shape="569.71,1233.88 571.93,1234.27 573.98,1233.68 575.86,1232.11 577.57,1229.57"/>
    </edge>
    <edge id=":1871924379_1" function="internal">
        <lane id=":1871924379_1_0" index="0" disallow="pedestrian bicycle tram rail_urban rail rail_electric rail_fast ship" speed="25.00" length="10.52" shape="569.71,1233.88 572.60,1234.72 574.76,1234.97 576.96,1235.28 579.94,1236.25"/>
        <lane id=":1871924379_1_1" index="1" disallow="pedestrian bicycle tram rail_urban rail rail_electric rail_fast ship" speed="25.00" length="10.52" shape="569.71,1233.88 572.41,1235.18 574.15,1236.45 575.93,1237.77 578.71,1239.20"/>
    </edge>
    <edge id=":1871924414_0" function="internal">
        <lane id=":1871924414_0_0" index="0" disallow="pedestrian bicycle tram rail_urban rail rail_electric rail_fast ship" speed="22.22" length="3.01" shape="1445.79,1564.86 1442.94,1563.88"/>
        <lane id=":1871924414_0_1" index="1" disallow="pedestrian bicycle tram rail_urban rail rail_electric rail_fast ship" speed="22.22" length="3.01" shape="1446.83,1561.84 1443.99,1560.85"/>
        <lane id=":1871924414_0_2" index="2" disallow="pedestrian bicycle tram rail_urban rail rail_electric rail_fast ship" speed="22.22" length="3.01" shape="1447.88,1558.82 1445.03,1557.83"/>
        <lane id=":1871924414_0_3" index="3" disallow="pedestrian bicycle tram rail_urban rail rail_electric rail_fast ship" speed="22.22" length="3.01" shape="1448.93,1555.79 1446.08,1554.81"/>
    </edge>
    <edge id=":1871924414_4" function="internal">
        <lane id=":1871924414_4_0" index="0" disallow="pedestrian bicycle tram rail_urban rail rail_electric rail_fast ship" speed="22.22" length="3.01" shape="1444.74,1567.88 1441.89,1566.90"/>
    </edge>
    <edge id=":1874530665_0" function="internal">
        <lane id=":1874530665_0_0" index="0" disallow="tram rail_urban rail rail_electric rail_fast ship" speed="22.22" length="3.09" shape="1494.69,1108.63 1495.70,1105.69"/>
        <lane id=":1874530665_0_1" index="1" disallow="tram rail_urban rail rail_electric rail_fast ship" speed="22.22" length="3.09" shape="1497.72,1109.65 1498.72,1106.75"/>
    </edge>
    <edge id=":1874530665_2" function="internal">
        <lane id=":1874530665_2_0" index="0" disallow="tram rail_urban rail rail_electric rail_fast ship" speed="16.67" length="3.17" shape="1488.67,1106.60 1489.66,1103.57"/>
        <lane id=":1874530665_2_1" index="1" disallow="tram rail_urban rail rail_electric rail_fast ship" speed="16.67" length="3.17" shape="1491.70,1107.63 1492.68,1104.63"/>
    </edge>
    <edge id=":1876002870_0" function="internal">
        <lane id=":1876002870_0_0" index="0" disallow="tram rail_urban rail rail_electric rail_fast ship" speed="22.22" length="14.41" shape="2098.43,1577.07 2084.45,1573.57"/>
    </edge>
    <edge id=":1876002870_1" function="internal">
        <lane id=":1876002870_1_0" index="0" disallow="tram rail_urban rail rail_electric rail_fast ship" speed="8.33" length="5.75" shape="2098.43,1577.07 2094.97,1575.62 2093.57,1574.20"/>
    </edge>
    <edge id=":1876002870_2" function="internal">
        <lane id=":1876002870_2_0" index="0" disallow="tram rail_urban rail rail_electric rail_fast ship" speed="3.65" length="2.34" shape="2098.43,1577.07 2097.46,1576.00 2097.27,1575.13"/>
    </edge>
    <edge id=":1876002870_9" function="internal">
        <lane id=":1876002870_9_0" index="0" disallow="tram rail_urban rail rail_electric rail_fast ship" speed="8.33" length="8.59" shape="2093.57,1574.20 2092.69,1573.32 2091.59,1570.17 2091.68,1566.16"/>
    </edge>
    <edge id=":1876002870_10" function="internal">
        <lane id=":1876002870_10_0" index="0" disallow="tram rail_urban rail rail_electric rail_fast ship" speed="3.65" length="2.34" shape="2097.27,1575.13 2097.85,1574.45 2099.21,1573.97"/>
    </edge>
    <edge id=":1876002870_3" function="internal">
        <lane id=":1876002870_3_0" index="0" disallow="tram rail_urban rail rail_electric rail_fast ship" speed="6.90" length="9.53" shape="2094.84,1566.64 2094.77,1569.35 2095.48,1571.47 2096.96,1573.01 2099.21,1573.97"/>
    </edge>
    <edge id=":1876002870_4" function="internal">
        <lane id=":1876002870_4_0" index="0" disallow="tram rail_urban rail rail_electric rail_fast ship" speed="7.84" length="14.56" shape="2094.84,1566.64 2093.67,1570.51 2091.55,1572.95 2088.48,1573.97 2084.45,1573.57"/>
    </edge>
    <edge id=":1876002870_5" function="internal">
        <lane id=":1876002870_5_0" index="0" disallow="tram rail_urban rail rail_electric rail_fast ship" speed="3.65" length="4.67" shape="2094.84,1566.64 2093.87,1567.71 2093.02,1567.98 2092.29,1567.47 2091.68,1566.16"/>
    </edge>
    <edge id=":1876002870_6" function="internal">
        <lane id=":1876002870_6_0" index="0" disallow="tram rail_urban rail rail_electric rail_fast ship" speed="6.31" length="9.04" shape="2085.23,1570.46 2087.72,1570.71 2089.63,1570.08 2090.95,1568.56 2091.68,1566.16"/>
    </edge>
    <edge id=":1876002870_7" function="internal">
        <lane id=":1876002870_7_0" index="0" disallow="tram rail_urban rail rail_electric rail_fast ship" speed="22.22" length="14.42" shape="2085.23,1570.46 2099.21,1573.97"/>
    </edge>
    <edge id=":1876002870_8" function="internal">
        <lane id=":1876002870_8_0" index="0" disallow="tram rail_urban rail rail_electric rail_fast ship" speed="3.65" length="2.34" shape="2085.23,1570.46 2086.20,1571.53 2086.39,1572.40"/>
    </edge>
    <edge id=":1876002870_11" function="internal">
        <lane id=":1876002870_11_0" index="0" disallow="tram rail_urban rail rail_electric rail_fast ship" speed="3.65" length="2.34" shape="2086.39,1572.40 2085.81,1573.08 2084.45,1573.57"/>
    </edge>
    <edge id=":24474366#3-AddedOnRampNode_0" function="internal">
        <lane id=":24474366#3-AddedOnRampNode_0_0" index="0" disallow="tram rail_urban rail rail_electric rail_fast ship" speed="16.67" length="8.00" shape="1527.86,1016.76 1530.64,1009.26"/>
        <lane id=":24474366#3-AddedOnRampNode_0_1" index="1" disallow="tram rail_urban rail rail_electric rail_fast ship" speed="16.67" length="8.00" shape="1530.87,1017.87 1533.64,1010.37"/>
    </edge>
    <edge id=":2477681335_0" function="internal">
        <lane id=":2477681335_0_0" index="0" disallow="tram rail_urban rail rail_electric rail_fast ship" speed="3.65" length="4.67" shape="566.77,1036.68 565.52,1037.40 564.63,1037.41 564.09,1036.69 563.90,1035.26"/>
    </edge>
    <edge id=":266073268_0" function="internal">
        <lane id=":266073268_0_0" index="0" disallow="tram rail_urban rail rail_electric rail_fast ship" speed="13.85" length="23.17" shape="1404.31,1502.95 1406.00,1507.94 1409.04,1512.37 1413.45,1516.25 1419.22,1519.57"/>
    </edge>
    <edge id=":266073268_1" function="internal">