<?xml version="1.0" encoding="UTF-8"?>

<!-- generated on 06/27/23 14:38:00 by Eclipse SUMO netconvert Version 1.8.0
<configuration xmlns:xsi="http://www.w3.org/2001/XMLSchema-instance" xsi:noNamespaceSchemaLocation="http://sumo.dlr.de/xsd/netconvertConfiguration.xsd">

    <input>
        <osm-files value="map.osm"/>
    </input>

    <output>
        <output-file value="map.net.xml"/>
    </output>

    <projection>
        <proj.utm value="true"/>
    </projection>

    <report>
        <aggregate-warnings value="5"/>
    </report>

</configuration>
-->

<net version="1.6" junctionCornerDetail="5" limitTurnSpeed="5.50" xmlns:xsi="http://www.w3.org/2001/XMLSchema-instance" xsi:noNamespaceSchemaLocation="http://sumo.dlr.de/xsd/net_file.xsd">

    <location netOffset="-390301.53,-5819272.32" convBoundary="0.00,0.00,2175.45,2098.04" origBoundary="13.368759,52.506732,13.417649,52.531772" projParameter="+proj=utm +zone=33 +ellps=WGS84 +datum=WGS84 +units=m +no_defs"/>

    <type id="highway.bridleway" priority="1" numLanes="1" speed="2.78" allow="pedestrian" oneway="1" width="2.00"/>
    <type id="highway.bus_guideway" priority="1" numLanes="1" speed="27.78" allow="bus" oneway="1"/>
    <type id="highway.cycleway" priority="1" numLanes="1" speed="8.33" allow="bicycle" oneway="0" width="1.00"/>
    <type id="highway.footway" priority="1" numLanes="1" speed="2.78" allow="pedestrian" oneway="1" width="2.00"/>
    <type id="highway.ford" priority="1" numLanes="1" speed="2.78" allow="army" oneway="0"/>
    <type id="highway.living_street" priority="2" numLanes="1" speed="2.78" disallow="tram rail_urban rail rail_electric rail_fast ship" oneway="0"/>
    <type id="highway.motorway" priority="14" numLanes="2" speed="39.44" allow="private emergency authority army vip passenger hov taxi bus coach delivery truck trailer motorcycle evehicle custom1 custom2" oneway="1"/>
    <type id="highway.motorway_link" priority="9" numLanes="1" speed="22.22" allow="private emergency authority army vip passenger hov taxi bus coach delivery truck trailer motorcycle evehicle custom1 custom2" oneway="1"/>
    <type id="highway.path" priority="1" numLanes="1" speed="2.78" allow="pedestrian bicycle" oneway="0" width="2.00"/>
    <type id="highway.pedestrian" priority="1" numLanes="1" speed="2.78" allow="pedestrian" oneway="1" width="2.00"/>
    <type id="highway.primary" priority="12" numLanes="2" speed="27.78" disallow="tram rail_urban rail rail_electric rail_fast ship" oneway="0"/>
    <type id="highway.primary_link" priority="7" numLanes="1" speed="22.22" disallow="tram rail_urban rail rail_electric rail_fast ship" oneway="0"/>
    <type id="highway.raceway" priority="15" numLanes="2" speed="83.33" allow="vip" oneway="0"/>
    <type id="highway.residential" priority="3" numLanes="1" speed="13.89" disallow="tram rail_urban rail rail_electric rail_fast ship" oneway="0"/>
    <type id="highway.secondary" priority="11" numLanes="1" speed="27.78" disallow="tram rail_urban rail rail_electric rail_fast ship" oneway="0"/>
    <type id="highway.secondary_link" priority="6" numLanes="1" speed="22.22" disallow="tram rail_urban rail rail_electric rail_fast ship" oneway="0"/>
    <type id="highway.service" priority="1" numLanes="1" speed="5.56" allow="pedestrian delivery bicycle" oneway="0"/>
    <type id="highway.stairs" priority="1" numLanes="1" speed="1.39" allow="pedestrian" oneway="1" width="2.00"/>
    <type id="highway.step" priority="1" numLanes="1" speed="1.39" allow="pedestrian" oneway="1" width="2.00"/>
    <type id="highway.steps" priority="1" numLanes="1" speed="1.39" allow="pedestrian" oneway="1" width="2.00"/>
    <type id="highway.tertiary" priority="10" numLanes="1" speed="22.22" disallow="tram rail_urban rail rail_electric rail_fast ship" oneway="0"/>
    <type id="highway.tertiary_link" priority="5" numLanes="1" speed="22.22" disallow="tram rail_urban rail rail_electric rail_fast ship" oneway="0"/>
    <type id="highway.track" priority="1" numLanes="1" speed="5.56" allow="pedestrian motorcycle moped bicycle" oneway="0"/>
    <type id="highway.trunk" priority="13" numLanes="2" speed="27.78" disallow="pedestrian bicycle tram rail_urban rail rail_electric rail_fast ship" oneway="0"/>
    <type id="highway.trunk_link" priority="8" numLanes="1" speed="22.22" disallow="pedestrian bicycle tram rail_urban rail rail_electric rail_fast ship" oneway="0"/>
    <type id="highway.unclassified" priority="4" numLanes="1" speed="13.89" disallow="tram rail_urban rail rail_electric rail_fast ship" oneway="0"/>
    <type id="highway.unsurfaced" priority="1" numLanes="1" speed="8.33" disallow="tram rail_urban rail rail_electric rail_fast ship" oneway="0"/>
    <type id="railway.highspeed" priority="21" numLanes="1" speed="69.44" allow="rail_fast" oneway="1"/>
    <type id="railway.light_rail" priority="19" numLanes="1" speed="27.78" allow="rail_urban" oneway="1"/>
    <type id="railway.preserved" priority="16" numLanes="1" speed="27.78" allow="rail" oneway="1"/>
    <type id="railway.rail" priority="20" numLanes="1" speed="44.44" allow="rail" oneway="1"/>
    <type id="railway.subway" priority="18" numLanes="1" speed="27.78" allow="rail_urban" oneway="1"/>
    <type id="railway.tram" priority="17" numLanes="1" speed="13.89" allow="tram" oneway="1"/>

    <edge id=":10008135954_0" function="internal">
        <lane id=":10008135954_0_0" index="0" disallow="tram rail_urban rail rail_electric rail_fast ship" speed="8.33" length="7.82" shape="703.82,780.53 703.69,782.07 703.55,784.52 703.55,786.93 703.86,788.31"/>
    </edge>
    <edge id=":10008135954_1" function="internal">
        <lane id=":10008135954_1_0" index="0" allow="pedestrian bicycle" speed="5.56" length="7.77" width="2.00" shape="703.82,780.53 703.44,782.45 702.66,784.14 701.46,785.63 699.86,786.90"/>
    </edge>
    <edge id=":10008135954_2" function="internal">
        <lane id=":10008135954_2_0" index="0" allow="pedestrian bicycle" speed="5.56" length="6.22" shape="698.78,785.22 699.59,785.09 700.71,785.57 702.13,786.64 703.86,788.31"/>
    </edge>
    <edge id=":10008135954_3" function="internal">
        <lane id=":10008135954_3_0" index="0" allow="pedestrian bicycle" speed="2.78" length="2.92" width="2.00" shape="698.78,785.22 699.68,785.24 700.16,785.52 700.22,786.08 699.86,786.90"/>
    </edge>
    <edge id=":10008135958_0" function="internal">
        <lane id=":10008135958_0_0" index="0" allow="pedestrian bicycle" speed="2.78" length="10.84" width="2.00" shape="675.72,805.96 673.34,808.04 671.67,809.72 670.56,811.69 669.86,814.66"/>
    </edge>
    <edge id=":10008135958_1" function="internal">
        <lane id=":10008135958_1_0" index="0" allow="pedestrian bicycle" speed="2.78" length="11.97" width="2.00" shape="675.72,805.96 672.47,808.39 670.35,808.75 669.35,807.04 669.48,803.26"/>
    </edge>
    <edge id=":10008135958_2" function="internal">
        <lane id=":10008135958_2_0" index="0" allow="pedestrian bicycle" speed="2.78" length="2.97" width="2.00" shape="675.72,805.96 674.85,806.26 674.29,806.15 674.04,805.64 674.10,804.73"/>
    </edge>
    <edge id=":10008135958_3" function="internal">
        <lane id=":10008135958_3_0" index="0" allow="pedestrian bicycle" speed="2.78" length="5.11" width="2.00" shape="671.46,803.54 671.40,805.16 671.82,805.90 672.72,805.76 674.10,804.73"/>
    </edge>
    <edge id=":10008135958_4" function="internal">
        <lane id=":10008135958_4_0" index="0" allow="pedestrian bicycle" speed="2.78" length="11.23" width="2.00" shape="671.46,803.54 669.86,814.66"/>
    </edge>
    <edge id=":10008135958_5" function="internal">
        <lane id=":10008135958_5_0" index="0" allow="pedestrian bicycle" speed="2.78" length="2.92" width="2.00" shape="671.46,803.54 670.85,804.21 670.32,804.39 669.86,804.07 669.48,803.26"/>
    </edge>
    <edge id=":10008135958_6" function="internal">
        <lane id=":10008135958_6_0" index="0" allow="pedestrian bicycle" speed="2.78" length="11.23" width="2.00" shape="667.88,814.38 669.48,803.26"/>
    </edge>
    <edge id=":10008135958_7" function="internal">
        <lane id=":10008135958_7_0" index="0" allow="pedestrian bicycle" speed="2.78" length="11.81" width="2.00" shape="667.88,814.38 668.63,811.25 669.87,808.96 671.67,806.96 674.10,804.73"/>
    </edge>
    <edge id=":10008135958_8" function="internal">
        <lane id=":10008135958_8_0" index="0" allow="pedestrian bicycle" speed="2.78" length="2.92" width="2.00" shape="667.88,814.38 668.48,813.71 669.01,813.53 669.47,813.85 669.86,814.66"/>
    </edge>
    <edge id=":10053209426_0" function="internal">
        <lane id=":10053209426_0_0" index="0" allow="tram" speed="13.89" length="5.38" shape="1340.80,968.06 1337.67,972.44"/>
    </edge>
    <edge id=":10053209427_0" function="internal">
        <lane id=":10053209427_0_0" index="0" allow="tram" speed="13.89" length="5.03" shape="1334.91,970.68 1337.54,966.40"/>
    </edge>
    <edge id=":10053209432_0" function="internal">
        <lane id=":10053209432_0_0" index="0" allow="pedestrian delivery bicycle" speed="8.33" length="5.98" shape="1380.28,887.91 1375.05,884.99"/>
    </edge>
    <edge id=":10053209432_1" function="internal">
        <lane id=":10053209432_1_0" index="0" allow="pedestrian delivery bicycle" speed="3.65" length="2.34" shape="1380.28,887.91 1379.62,886.63 1379.66,885.74"/>
    </edge>
    <edge id=":10053209432_4" function="internal">
        <lane id=":10053209432_4_0" index="0" allow="pedestrian delivery bicycle" speed="3.65" length="2.34" shape="1379.66,885.74 1380.40,885.23 1381.84,885.12"/>
    </edge>
    <edge id=":10053209432_2" function="internal">
        <lane id=":10053209432_2_0" index="0" allow="pedestrian delivery bicycle" speed="8.33" length="5.98" shape="1376.61,882.20 1381.84,885.12"/>
    </edge>
    <edge id=":10053209432_3" function="internal">
        <lane id=":10053209432_3_0" index="0" allow="pedestrian delivery bicycle" speed="3.65" length="2.34" shape="1376.61,882.20 1377.27,883.49 1377.23,884.38"/>
    </edge>
    <edge id=":10053209432_5" function="internal">
        <lane id=":10053209432_5_0" index="0" allow="pedestrian delivery bicycle" speed="3.65" length="2.34" shape="1377.23,884.38 1376.49,884.88 1375.05,884.99"/>
    </edge>
    <edge id=":10075520446_0" function="internal">
        <lane id=":10075520446_0_0" index="0" allow="pedestrian delivery bicycle" speed="5.56" length="5.00" shape="1103.83,520.58 1101.11,524.77"/>
    </edge>
    <edge id=":10075520446_1" function="internal">
        <lane id=":10075520446_1_0" index="0" allow="pedestrian delivery bicycle" speed="3.65" length="4.67" shape="1103.83,520.58 1102.50,521.15 1101.61,521.05 1101.16,520.28 1101.14,518.84"/>
    </edge>
    <edge id=":10075520446_2" function="internal">
        <lane id=":10075520446_2_0" index="0" allow="pedestrian delivery bicycle" speed="5.56" length="5.00" shape="1098.42,523.03 1101.14,518.84"/>
    </edge>
    <edge id=":10075520446_3" function="internal">
        <lane id=":10075520446_3_0" index="0" allow="pedestrian delivery bicycle" speed="3.65" length="4.67" shape="1098.42,523.03 1099.75,522.46 1100.63,522.56 1101.09,523.33 1101.11,524.77"/>
    </edge>
    <edge id=":10083821714_0" function="internal">
        <lane id=":10083821714_0_0" index="0" disallow="tram rail_urban rail rail_electric rail_fast ship" speed="8.33" length="0.10" shape="873.07,688.28 873.07,688.28"/>
    </edge>
    <edge id=":10083821714_1" function="internal">
        <lane id=":10083821714_1_0" index="0" disallow="tram rail_urban rail rail_electric rail_fast ship" speed="8.33" length="0.10" shape="874.71,685.54 874.71,685.54"/>
    </edge>
    <edge id=":10083827716_0" function="internal">
        <lane id=":10083827716_0_0" index="0" disallow="tram rail_urban rail rail_electric rail_fast ship" speed="8.33" length="0.10" shape="931.62,722.87 931.62,722.87"/>
    </edge>
    <edge id=":10083827716_1" function="internal">
        <lane id=":10083827716_1_0" index="0" disallow="tram rail_urban rail rail_electric rail_fast ship" speed="8.33" length="0.10" shape="933.22,720.10 933.22,720.10"/>
    </edge>
    <edge id=":10083845815_0" function="internal">
        <lane id=":10083845815_0_0" index="0" disallow="tram rail_urban rail rail_electric rail_fast ship" speed="8.33" length="0.30" shape="865.21,677.49 865.15,677.20"/>
    </edge>
    <edge id=":10083845815_1" function="internal">
        <lane id=":10083845815_1_0" index="0" disallow="tram rail_urban rail rail_electric rail_fast ship" speed="8.33" length="0.30" shape="868.29,676.55 868.35,676.85"/>
    </edge>
    <edge id=":10087224554_0" function="internal">
        <lane id=":10087224554_0_0" index="0" disallow="tram rail_urban rail rail_electric rail_fast ship" speed="13.89" length="0.10" shape="1477.64,1029.74 1477.64,1029.74"/>
    </edge>
    <edge id=":10087224554_1" function="internal">
        <lane id=":10087224554_1_0" index="0" disallow="tram rail_urban rail rail_electric rail_fast ship" speed="13.89" length="0.10" shape="1479.04,1026.86 1479.04,1026.86"/>
    </edge>
    <edge id=":10173804193_0" function="internal">
        <lane id=":10173804193_0_0" index="0" disallow="tram rail_urban rail rail_electric rail_fast ship" speed="13.89" length="5.20" shape="1684.98,522.61 1688.06,518.56"/>
        <lane id=":10173804193_0_1" index="1" disallow="tram rail_urban rail rail_electric rail_fast ship" speed="13.89" length="5.20" shape="1687.50,524.59 1690.64,520.45"/>
        <lane id=":10173804193_0_2" index="2" disallow="tram rail_urban rail rail_electric rail_fast ship" speed="13.89" length="5.20" shape="1690.01,526.57 1693.22,522.35"/>
    </edge>
    <edge id=":10185898876_0" function="internal">
        <lane id=":10185898876_0_0" index="0" disallow="tram rail_urban rail rail_electric rail_fast ship" speed="8.33" length="0.38" shape="502.99,445.95 503.03,445.84 503.05,445.77 503.06,445.69 503.07,445.58"/>
    </edge>
    <edge id=":10188353045_0" function="internal">
        <lane id=":10188353045_0_0" index="0" allow="pedestrian delivery bicycle" speed="3.65" length="4.67" shape="1501.02,679.95 1500.50,678.61 1500.64,677.72 1501.43,677.30 1502.87,677.34"/>
    </edge>
    <edge id=":10189040386_0" function="internal">
        <lane id=":10189040386_0_0" index="0" disallow="tram rail_urban rail rail_electric rail_fast ship" speed="13.89" length="8.21" shape="568.58,524.54 566.18,524.61 564.54,525.04 562.90,525.47 560.49,525.54"/>
        <lane id=":10189040386_0_1" index="1" disallow="tram rail_urban rail rail_electric rail_fast ship" speed="13.89" length="8.21" shape="568.82,521.35 566.41,521.42 564.78,521.85 563.14,522.28 560.73,522.35"/>
        <lane id=":10189040386_0_2" index="2" disallow="tram rail_urban rail rail_electric rail_fast ship" speed="13.89" length="8.21" shape="568.82,521.35 566.45,520.92 564.89,520.25 563.34,519.58 560.97,519.16"/>
    </edge>
    <edge id=":10196206487_0" function="internal">
        <lane id=":10196206487_0_0" index="0" allow="pedestrian bicycle" speed="2.78" length="0.10" width="2.00" shape="748.28,1095.83 748.24,1095.74"/>
    </edge>
    <edge id=":10196206487_1" function="internal">
        <lane id=":10196206487_1_0" index="0" allow="pedestrian bicycle" speed="2.78" length="0.15" width="2.00" shape="750.12,1095.04 750.17,1095.18"/>
    </edge>
    <edge id=":10196206490_0" function="internal">
        <lane id=":10196206490_0_0" index="0" allow="pedestrian bicycle" speed="2.78" length="0.44" width="2.00" shape="702.37,1020.69 702.71,1020.97"/>
    </edge>
    <edge id=":10196206490_1" function="internal">
        <lane id=":10196206490_1_0" index="0" allow="pedestrian bicycle" speed="2.78" length="0.42" width="2.00" shape="703.97,1019.41 703.64,1019.15"/>
    </edge>
    <edge id=":10196206493_0" function="internal">
        <lane id=":10196206493_0_0" index="0" allow="pedestrian delivery bicycle" speed="5.56" length="5.45" shape="508.76,1043.06 508.28,1048.48"/>
    </edge>
    <edge id=":10196206493_1" function="internal">
        <lane id=":10196206493_1_0" index="0" allow="pedestrian delivery bicycle" speed="3.65" length="2.34" shape="508.76,1043.06 507.84,1044.18 507.01,1044.50"/>
    </edge>
    <edge id=":10196206493_4" function="internal">
        <lane id=":10196206493_4_0" index="0" allow="pedestrian delivery bicycle" speed="3.65" length="2.34" shape="507.01,1044.50 506.25,1044.02 505.57,1042.75"/>
    </edge>
    <edge id=":10196206493_2" function="internal">
        <lane id=":10196206493_2_0" index="0" allow="pedestrian delivery bicycle" speed="5.56" length="5.51" shape="505.09,1048.24 505.57,1042.75"/>
    </edge>
    <edge id=":10196206493_3" function="internal">
        <lane id=":10196206493_3_0" index="0" allow="pedestrian delivery bicycle" speed="3.65" length="2.34" shape="505.09,1048.24 505.98,1047.10 506.81,1046.76"/>
    </edge>
    <edge id=":10196206493_5" function="internal">
        <lane id=":10196206493_5_0" index="0" allow="pedestrian delivery bicycle" speed="3.65" length="2.34" shape="506.81,1046.76 507.57,1047.23 508.28,1048.48"/>
    </edge>
    <edge id=":10196206498_0" function="internal">
        <lane id=":10196206498_0_0" index="0" allow="pedestrian delivery bicycle" speed="5.56" length="4.26" shape="594.22,939.24 589.98,938.81"/>
    </edge>
    <edge id=":10196206498_1" function="internal">
        <lane id=":10196206498_1_0" index="0" allow="pedestrian delivery bicycle" speed="3.65" length="2.34" shape="594.22,939.24 593.12,938.30 592.81,937.46"/>
    </edge>
    <edge id=":10196206498_4" function="internal">
        <lane id=":10196206498_4_0" index="0" allow="pedestrian delivery bicycle" speed="3.65" length="2.34" shape="592.81,937.46 593.30,936.71 594.59,936.06"/>
    </edge>
    <edge id=":10196206498_2" function="internal">
        <lane id=":10196206498_2_0" index="0" allow="pedestrian delivery bicycle" speed="5.56" length="4.34" shape="590.27,935.62 594.59,936.06"/>
    </edge>
    <edge id=":10196206498_3" function="internal">
        <lane id=":10196206498_3_0" index="0" allow="pedestrian delivery bicycle" speed="3.65" length="2.34" shape="590.27,935.62 591.39,936.53 591.72,937.36"/>
    </edge>
    <edge id=":10196206498_5" function="internal">
        <lane id=":10196206498_5_0" index="0" allow="pedestrian delivery bicycle" speed="3.65" length="2.34" shape="591.72,937.36 591.25,938.12 589.98,938.81"/>
    </edge>
    <edge id=":10196206499_0" function="internal">
        <lane id=":10196206499_0_0" index="0" allow="pedestrian delivery bicycle" speed="8.33" length="5.10" shape="597.69,907.71 592.62,907.19"/>
    </edge>
    <edge id=":10196206499_1" function="internal">
        <lane id=":10196206499_1_0" index="0" allow="pedestrian delivery bicycle" speed="3.65" length="2.34" shape="597.69,907.71 596.58,906.79 596.26,905.95"/>
    </edge>
    <edge id=":10196206499_4" function="internal">
        <lane id=":10196206499_4_0" index="0" allow="pedestrian delivery bicycle" speed="3.65" length="2.34" shape="596.26,905.95 596.74,905.20 598.02,904.52"/>
    </edge>
    <edge id=":10196206499_2" function="internal">
        <lane id=":10196206499_2_0" index="0" allow="pedestrian delivery bicycle" speed="8.33" length="5.11" shape="592.94,904.01 598.02,904.52"/>
    </edge>
    <edge id=":10196206499_3" function="internal">
        <lane id=":10196206499_3_0" index="0" allow="pedestrian delivery bicycle" speed="3.65" length="2.34" shape="592.94,904.01 594.05,904.93 594.37,905.76"/>
    </edge>
    <edge id=":10196206499_5" function="internal">
        <lane id=":10196206499_5_0" index="0" allow="pedestrian delivery bicycle" speed="3.65" length="2.34" shape="594.37,905.76 593.89,906.52 592.62,907.19"/>
    </edge>
    <edge id=":10196206500_0" function="internal">
        <lane id=":10196206500_0_0" index="0" allow="pedestrian delivery bicycle" speed="8.33" length="5.05" shape="599.53,885.91 594.50,885.43"/>
    </edge>
    <edge id=":10196206500_1" function="internal">
        <lane id=":10196206500_1_0" index="0" allow="pedestrian delivery bicycle" speed="3.65" length="2.34" shape="599.53,885.91 598.41,885.00 598.08,884.17"/>
    </edge>
    <edge id=":10196206500_4" function="internal">
        <lane id=":10196206500_4_0" index="0" allow="pedestrian delivery bicycle" speed="3.65" length="2.34" shape="598.08,884.17 598.56,883.41 599.82,882.72"/>
    </edge>
    <edge id=":10196206500_2" function="internal">
        <lane id=":10196206500_2_0" index="0" allow="pedestrian delivery bicycle" speed="8.33" length="5.03" shape="594.81,882.25 599.82,882.72"/>
    </edge>
    <edge id=":10196206500_3" function="internal">
        <lane id=":10196206500_3_0" index="0" allow="pedestrian delivery bicycle" speed="3.65" length="2.34" shape="594.81,882.25 595.93,883.16 596.25,884.00"/>
    </edge>
    <edge id=":10196206500_5" function="internal">
        <lane id=":10196206500_5_0" index="0" allow="pedestrian delivery bicycle" speed="3.65" length="2.34" shape="596.25,884.00 595.78,884.75 594.50,885.43"/>
    </edge>
    <edge id=":10196222666_0" function="internal">
        <lane id=":10196222666_0_0" index="0" allow="pedestrian delivery bicycle" speed="3.65" length="4.67" shape="754.48,1170.70 753.10,1170.30 752.48,1169.65 752.62,1168.77 753.53,1167.65"/>
    </edge>
    <edge id=":10196222667_0" function="internal">
        <lane id=":10196222667_0_0" index="0" allow="pedestrian delivery bicycle" speed="5.10" length="5.08" shape="771.99,1168.45 771.37,1167.24 770.50,1166.51 769.36,1166.26 767.97,1166.49"/>
    </edge>
    <edge id=":10196222667_1" function="internal">
        <lane id=":10196222667_1_0" index="0" disallow="tram rail_urban rail rail_electric rail_fast ship" speed="8.33" length="9.40" shape="771.99,1168.45 769.01,1159.53"/>
    </edge>
    <edge id=":10196222667_2" function="internal">
        <lane id=":10196222667_2_0" index="0" disallow="tram rail_urban rail rail_electric rail_fast ship" speed="3.65" length="2.34" shape="771.99,1168.45 772.37,1167.06 773.00,1166.43"/>
    </edge>
    <edge id=":10196222667_9" function="internal">
        <lane id=":10196222667_9_0" index="0" disallow="tram rail_urban rail rail_electric rail_fast ship" speed="3.65" length="2.34" shape="773.00,1166.43 773.88,1166.55 775.02,1167.44"/>
    </edge>
    <edge id=":10196222667_3" function="internal">
        <lane id=":10196222667_3_0" index="0" disallow="tram rail_urban rail rail_electric rail_fast ship" speed="8.33" length="9.40" shape="772.05,1158.52 775.02,1167.44"/>
    </edge>
    <edge id=":10196222667_4" function="internal">
        <lane id=":10196222667_4_0" index="0" allow="pedestrian delivery bicycle" speed="6.85" length="5.13" shape="772.05,1158.52 772.55,1161.29 772.04,1163.55"/>
    </edge>
    <edge id=":10196222667_5" function="internal">
        <lane id=":10196222667_5_0" index="0" disallow="tram rail_urban rail rail_electric rail_fast ship" speed="3.65" length="2.34" shape="772.05,1158.52 771.67,1159.91 771.04,1160.55"/>
    </edge>
    <edge id=":10196222667_10" function="internal">
        <lane id=":10196222667_10_0" index="0" allow="pedestrian delivery bicycle" speed="6.85" length="5.13" shape="772.04,1163.55 770.51,1165.28 767.97,1166.49"/>
    </edge>
    <edge id=":10196222667_11" function="internal">
        <lane id=":10196222667_11_0" index="0" disallow="tram rail_urban rail rail_electric rail_fast ship" speed="3.65" length="2.34" shape="771.04,1160.55 770.15,1160.42 769.01,1159.53"/>
    </edge>
    <edge id=":10196222667_6" function="internal">
        <lane id=":10196222667_6_0" index="0" allow="pedestrian delivery bicycle" speed="5.02" length="5.02" shape="767.01,1163.44 768.26,1162.84 769.01,1162.00 769.26,1160.89 769.01,1159.53"/>
    </edge>
    <edge id=":10196222667_7" function="internal">
        <lane id=":10196222667_7_0" index="0" allow="pedestrian delivery bicycle" speed="6.91" length="10.17" shape="767.01,1163.44 769.78,1162.98 772.04,1163.49 773.79,1164.98 775.02,1167.44"/>
    </edge>
    <edge id=":10196222667_8" function="internal">
        <lane id=":10196222667_8_0" index="0" allow="pedestrian delivery bicycle" speed="3.65" length="4.67" shape="767.01,1163.44 768.40,1163.84 769.02,1164.49 768.87,1165.37 767.97,1166.49"/>
    </edge>
    <edge id=":10242249291_0" function="internal">
        <lane id=":10242249291_0_0" index="0" disallow="tram rail_urban rail rail_electric rail_fast ship" speed="8.33" length="0.10" shape="706.33,751.34 706.33,751.34"/>
    </edge>
    <edge id=":10242321087_0" function="internal">
        <lane id=":10242321087_0_0" index="0" disallow="tram rail_urban rail rail_electric rail_fast ship" speed="8.33" length="0.30" shape="591.88,874.47 591.85,874.76"/>
    </edge>
    <edge id=":10242321087_1" function="internal">
        <lane id=":10242321087_1_0" index="0" disallow="tram rail_urban rail rail_electric rail_fast ship" speed="8.33" length="0.30" shape="588.67,874.45 588.70,874.15"/>
    </edge>
    <edge id=":10247148370_0" function="internal">
        <lane id=":10247148370_0_0" index="0" allow="tram" speed="5.56" length="5.17" shape="1972.94,876.43 1977.05,879.58"/>
    </edge>
    <edge id=":10247148373_0" function="internal">
        <lane id=":10247148373_0_0" index="0" allow="bicycle" speed="8.33" length="5.09" width="1.00" shape="1979.91,876.19 1975.89,873.06"/>
    </edge>
    <edge id=":10247148373_1" function="internal">
        <lane id=":10247148373_1_0" index="0" allow="bicycle" speed="2.04" length="0.73" width="1.00" shape="1979.91,876.19 1979.77,875.77 1979.82,875.49"/>
    </edge>
    <edge id=":10247148373_4" function="internal">
        <lane id=":10247148373_4_0" index="0" allow="bicycle" speed="2.04" length="0.73" width="1.00" shape="1979.82,875.49 1980.07,875.37 1980.52,875.40"/>
    </edge>
    <edge id=":10247148373_2" function="internal">
        <lane id=":10247148373_2_0" index="0" allow="bicycle" speed="8.33" length="5.09" width="1.00" shape="1976.50,872.28 1980.52,875.40"/>
    </edge>
    <edge id=":10247148373_3" function="internal">
        <lane id=":10247148373_3_0" index="0" allow="bicycle" speed="2.04" length="0.73" width="1.00" shape="1976.50,872.28 1976.64,872.70 1976.59,872.98"/>
    </edge>
    <edge id=":10247148373_5" function="internal">
        <lane id=":10247148373_5_0" index="0" allow="bicycle" speed="2.04" length="0.73" width="1.00" shape="1976.59,872.98 1976.34,873.10 1975.89,873.06"/>
    </edge>
    <edge id=":10247148374_0" function="internal">
        <lane id=":10247148374_0_0" index="0" allow="tram" speed="5.56" length="5.27" shape="1974.25,882.90 1969.99,879.80"/>
    </edge>
    <edge id=":10253393381_0" function="internal">
        <lane id=":10253393381_0_0" index="0" disallow="tram rail_urban rail rail_electric rail_fast ship" speed="13.89" length="0.30" shape="1587.23,1105.64 1587.00,1105.46"/>
    </edge>
    <edge id=":10253393381_1" function="internal">
        <lane id=":10253393381_1_0" index="0" disallow="tram rail_urban rail rail_electric rail_fast ship" speed="13.89" length="0.30" shape="1588.96,1102.93 1589.20,1103.12"/>
    </edge>
    <edge id=":10271645747_0" function="internal">
        <lane id=":10271645747_0_0" index="0" disallow="tram rail_urban rail rail_electric rail_fast ship" speed="8.33" length="0.10" shape="1300.48,940.18 1300.48,940.18"/>
    </edge>
    <edge id=":10271645747_1" function="internal">
        <lane id=":10271645747_1_0" index="0" disallow="tram rail_urban rail rail_electric rail_fast ship" speed="8.33" length="0.10" shape="1301.94,937.33 1301.94,937.33"/>
    </edge>
    <edge id=":10287056969_0" function="internal">
        <lane id=":10287056969_0_0" index="0" allow="pedestrian delivery bicycle" speed="3.73" length="4.96" shape="514.30,381.81 515.11,383.12 515.14,384.07 514.41,384.66 512.89,384.91"/>
    </edge>
    <edge id=":10287056970_0" function="internal">
        <lane id=":10287056970_0_0" index="0" allow="pedestrian delivery bicycle" speed="6.09" length="7.76" shape="508.20,384.49 506.89,383.98 506.02,382.71 505.61,380.70 505.66,377.94"/>
    </edge>
    <edge id=":10287056970_1" function="internal">
        <lane id=":10287056970_1_0" index="0" allow="pedestrian delivery bicycle" speed="3.65" length="4.67" shape="508.20,384.49 507.08,383.59 506.75,382.75 507.22,381.99 508.49,381.30"/>
    </edge>
    <edge id=":10287056970_2" function="internal">
        <lane id=":10287056970_2_0" index="0" disallow="tram rail_urban rail rail_electric rail_fast ship" speed="8.33" length="9.40" shape="504.84,387.30 505.66,377.94"/>
    </edge>
    <edge id=":10287056970_3" function="internal">
        <lane id=":10287056970_3_0" index="0" allow="pedestrian delivery bicycle" speed="6.08" length="7.76" shape="504.84,387.30 505.28,384.57 506.03,382.66 507.10,381.57 508.49,381.30"/>
    </edge>
    <edge id=":10287056971_0" function="internal">
        <lane id=":10287056971_0_0" index="0" allow="pedestrian delivery bicycle" speed="5.56" length="3.65" shape="512.69,384.89 509.06,384.57"/>
    </edge>
    <edge id=":10287056971_1" function="internal">
        <lane id=":10287056971_1_0" index="0" allow="pedestrian delivery bicycle" speed="3.73" length="1.91" shape="512.69,384.89 511.89,383.59 511.87,383.21"/>
    </edge>
    <edge id=":10287056971_4" function="internal">
        <lane id=":10287056971_4_0" index="0" allow="pedestrian delivery bicycle" speed="3.73" length="3.05" shape="511.87,383.21 511.85,382.64 512.59,382.04 514.11,381.80"/>
    </edge>
    <edge id=":10287056971_2" function="internal">